// OpenFOAM Foundation 13 | oxyControlFoam | SI units
// Read the numbered sections and comments before changing physical settings.
FoamFile
{
    version 2.0; format ascii;
    class dictionary;
    object physicalProperties;
}

// Water-like, isothermal liquid. Density is used for mechanical reporting.
viscosityModel constant;
nu [0 2 -1 0 0 0 0] 1e-6;
